/*--------------------------------*- C++ -*----------------------------------*\
  =========                 |
  \\      /  F ield         | OpenFOAM: The Open Source CFD Toolbox
   \\    /   O peration     | Website:  https://openfoam.org
    \\  /    A nd           | Version:  7
     \\/     M anipulation  |
\*---------------------------------------------------------------------------*/
FoamFile
{
    version     2.0;
    format      ascii;
    class       dictionary;
    location    "constant/polyMesh";
    object      meshMetaDict;
}
// * * * * * * * * * * * * * * * * * * * * * * * * * * * * * * * * * * * * * //

surfaceFile     "Frame2DForReal.stl";

surfaceMeta
{
    nPoints         8948;
    nFacets         8948;
    nPatches        4;
    nFeatureEdges   0;
    patches
    {
        inlet
        {
            type            empty;
            nFacets         2;
        }
        outlet
        {
            type            empty;
            nFacets         2;
        }
        walls
        {
            type            empty;
            nFacets         122;
        }
        TurbProm
        {
            type            empty;
            nFacets         8822;
        }
    }
    pointSubsets
    {
    }
    facetSubsets
    {
    }
    featureEdgeSubsets
    {
    }
}
